Version 4
SHEET 1 1008 1016
WIRE 448 -16 -256 -16
WIRE 656 -16 512 -16
WIRE 736 -16 656 -16
WIRE 656 0 656 -16
WIRE 736 0 736 -16
WIRE 352 32 -176 32
WIRE 160 96 -80 96
WIRE 176 96 160 96
WIRE 272 96 240 96
WIRE 656 96 656 64
WIRE 736 96 736 80
WIRE 736 96 656 96
WIRE 736 128 736 96
WIRE 160 192 160 96
WIRE 272 192 272 96
WIRE 272 192 240 192
WIRE 448 192 272 192
WIRE 512 192 512 -16
WIRE -256 208 -256 -16
WIRE -176 208 -176 32
WIRE -256 304 -416 304
WIRE 160 304 160 272
WIRE 160 304 -176 304
WIRE 240 304 240 272
WIRE 352 304 352 32
WIRE 352 304 240 304
WIRE 352 320 352 304
WIRE -416 336 -416 304
WIRE 160 336 160 304
WIRE 240 336 240 304
WIRE 272 416 240 416
WIRE 448 416 272 416
WIRE 512 416 512 192
WIRE 160 512 160 416
WIRE 176 512 160 512
WIRE 272 512 272 416
WIRE 272 512 240 512
WIRE -416 544 -416 416
WIRE -80 544 -80 96
WIRE 160 544 160 512
WIRE -128 624 -160 624
WIRE 112 624 80 624
WIRE -160 672 -160 624
WIRE 80 672 80 624
WIRE -160 784 -160 752
WIRE -80 784 -80 640
WIRE -80 784 -160 784
WIRE 80 784 80 752
WIRE 160 784 160 640
WIRE 160 784 80 784
WIRE -80 816 -80 784
WIRE 160 816 160 784
FLAG -80 816 0
FLAG 160 816 0
FLAG 736 128 0
FLAG -416 544 0
FLAG 352 320 0
SYMBOL ind2 144 288 M180
WINDOW 0 -34 72 Left 2
WINDOW 3 -68 37 Left 2
SYMATTR InstName L1
SYMATTR Value 3.3mH
SYMATTR Type ind
SYMATTR SpiceLine Rser=0.32
SYMBOL ind2 256 288 R180
WINDOW 0 -33 69 Left 2
WINDOW 3 -73 37 Left 2
SYMATTR InstName L2
SYMATTR Value 3.3mH
SYMATTR Type ind
SYMATTR SpiceLine Rser=0.32
SYMBOL ind2 144 320 R0
WINDOW 0 -30 32 Left 2
WINDOW 3 -73 65 Left 2
SYMATTR InstName L3
SYMATTR Value 3.3mH
SYMATTR Type ind
SYMATTR SpiceLine Rser=0.32
SYMBOL ind2 256 320 M0
WINDOW 0 -36 41 Left 2
WINDOW 3 -74 70 Left 2
SYMATTR InstName L4
SYMATTR Value 3.3mH
SYMATTR Type ind
SYMATTR SpiceLine Rser=0.32
SYMBOL ind2 -272 320 R270
WINDOW 0 -30 15 VTop 2
WINDOW 3 -2 84 VBottom 2
SYMATTR InstName L5
SYMATTR Value 220µH
SYMATTR Type ind
SYMATTR SpiceLine Rser=0.32
SYMBOL ind2 -160 192 R90
WINDOW 0 34 117 VBottom 2
WINDOW 3 5 -27 VTop 2
SYMATTR InstName L6
SYMATTR Value 220µH
SYMATTR Type ind
SYMATTR SpiceLine Rser=0.32
SYMBOL nmos -128 544 R0
WINDOW 0 -33 29 Left 2
WINDOW 3 60 65 Left 2
SYMATTR InstName M1
SYMATTR Value IRFP240
SYMBOL nmos 112 544 R0
WINDOW 0 -27 29 Left 2
WINDOW 3 60 66 Left 2
SYMATTR InstName M2
SYMATTR Value IRFP240
SYMBOL diode 448 208 R270
WINDOW 0 32 32 VTop 2
WINDOW 3 0 32 VBottom 2
SYMATTR InstName D1
SYMBOL diode 448 432 R270
WINDOW 0 32 32 VTop 2
WINDOW 3 0 32 VBottom 2
SYMATTR InstName D2
SYMBOL diode 448 0 R270
WINDOW 0 32 32 VTop 2
WINDOW 3 0 32 VBottom 2
SYMATTR InstName D3
SYMBOL voltage -160 656 R0
WINDOW 3 -545 11 Left 2
WINDOW 123 0 0 Left 2
WINDOW 39 0 0 Left 2
SYMATTR Value PULSE(0 15 0s {slew} {slew} {tOn} {t0})
SYMATTR InstName V1
SYMBOL voltage 80 656 R0
WINDOW 123 0 0 Left 2
WINDOW 39 0 0 Left 2
WINDOW 3 -784 80 Left 2
SYMATTR Value PULSE(0 15 {t0/2} {slew} {slew} {tOn} {t0})
SYMATTR InstName V2
SYMBOL cap 640 0 R0
SYMATTR InstName C1
SYMATTR Value 50µF
SYMBOL res 720 -16 R0
SYMATTR InstName R1
SYMATTR Value 50
SYMBOL voltage -416 320 R0
WINDOW 123 0 0 Left 2
WINDOW 39 0 0 Left 2
SYMATTR InstName V3
SYMATTR Value 40
SYMBOL cap 240 80 R90
WINDOW 0 0 32 VBottom 2
WINDOW 3 32 32 VTop 2
SYMATTR InstName C2
SYMATTR Value 1µ
SYMBOL cap 240 496 R90
WINDOW 0 0 32 VBottom 2
WINDOW 3 32 32 VTop 2
SYMATTR InstName C3
SYMATTR Value 1µ
TEXT 200 288 VLeft 2 !K1 L1 L2 0.9
TEXT 200 448 VLeft 2 !K2 L3 L4 0.9
TEXT -280 256 Left 2 !K3 L5 L6 0.9
TEXT -560 -16 Left 2 !.tran 15ms
TEXT -560 96 Left 2 !.param duty 25
TEXT 376 664 Left 2 !.param tOn {{t0}*{{duty}/100}-{2*{slew}}}
TEXT -560 56 Left 2 !.param f0 150k
TEXT 376 600 Left 2 !.param t0 {1/{f0}}
TEXT -392 96 Left 2 ;%
TEXT -392 56 Left 2 ;Hz
TEXT 328 632 Left 2 ;On for (half period * duty cycle) - (rise and fall time)
TEXT 328 568 Left 2 ;Period = 1 / frequency
TEXT -560 136 Left 2 !.param slew 40n
TEXT -376 136 Left 2 ;S
TEXT -704 632 Left 2 ;V1
TEXT -704 704 Left 2 ;V2
